examples/DynaFlow/IEEE14/IEEE14_DisconnectLine_intermediate_dump/reference/outputs/restart/finalState/outputIIDM.xml
<?xml version="1.0" encoding="UTF-8"?>
<iidm:network xmlns:iidm="http://www.powsybl.org/schema/iidm/1_2" id="ieee14bus" caseDate="2017-06-09T10:14:24.146000+02:00" forecastDistance="0" sourceFormat="CIM1">
    <iidm:substation id="_BUS___10_SS" name="BUS   10_SS" country="AF" geographicalTags="_SGR_01">
        <iidm:voltageLevel id="_BUS___10_VL" name="BUS   10_VL" nominalV="13.800000000000001" topologyKind="BUS_BREAKER">
            <iidm:busBreakerTopology>
                <iidm:bus id="_BUS___10_TN" v="14.470124475087152" angle="-20.598232971578732"/>
            </iidm:busBreakerTopology>
            <iidm:load id="_LOAD__10_EC" name="LOAD  10" loadType="UNDEFINED" p0="9" q0="5.7999999999999998" bus="_BUS___10_TN" connectableBus="_BUS___10_TN" p="8.999990248064055" q="5.7999895256684004"/>
        </iidm:voltageLevel>
    </iidm:substation>
    <iidm:substation id="_BUS___11_SS" name="BUS   11_SS" country="AF" geographicalTags="_SGR_01">
        <iidm:voltageLevel id="_BUS___11_VL" name="BUS   11_VL" nominalV="13.800000000000001" topologyKind="BUS_BREAKER">
            <iidm:busBreakerTopology>
                <iidm:bus id="_BUS___11_TN" v="14.57082311314638" angle="-20.47415422308956"/>
            </iidm:busBreakerTopology>
            <iidm:load id="_LOAD__11_EC" name="LOAD  11" loadType="UNDEFINED" p0="3.5" q0="1.8" bus="_BUS___11_TN" connectableBus="_BUS___11_TN" p="3.5293245338447266" q="1.8252054477772246"/>
        </iidm:voltageLevel>
    </iidm:substation>
    <iidm:substation id="_BUS___12_SS" name="BUS   12_SS" country="AF" geographicalTags="_SGR_01">
        <iidm:voltageLevel id="_BUS___12_VL" name="BUS   12_VL" nominalV="13.800000000000001" topologyKind="BUS_BREAKER">
            <iidm:busBreakerTopology>
                <iidm:bus id="_BUS___12_TN" v="14.560327899396299" angle="-20.923176336003944"/>
            </iidm:busBreakerTopology>
            <iidm:load id="_LOAD__12_EC" name="LOAD  12" loadType="UNDEFINED" p0="6.0999999999999996" q0="1.6000000000000001" bus="_BUS___12_TN" connectableBus="_BUS___12_TN" p="6.1444638000594907" q="1.6194849167908987"/>
        </iidm:voltageLevel>
    </iidm:substation>
    <iidm:substation id="_BUS___13_SS" name="BUS   13_SS" country="AF" geographicalTags="_SGR_01">
        <iidm:voltageLevel id="_BUS___13_VL" name="BUS   13_VL" nominalV="13.800000000000001" topologyKind="BUS_BREAKER">
            <iidm:busBreakerTopology>
                <iidm:bus id="_BUS___13_TN" v="14.493273828919154" angle="-20.966877587939134"/>
            </iidm:busBreakerTopology>
            <iidm:load id="_LOAD__13_EC" name="LOAD  13" loadType="UNDEFINED" p0="13.5" q0="5.7999999999999998" bus="_BUS___13_TN" connectableBus="_BUS___13_TN" p="13.504575485040426" q="5.8032766433390695"/>
        </iidm:voltageLevel>
    </iidm:substation>
    <iidm:substation id="_BUS___14_SS" name="BUS   14_SS" country="AF" geographicalTags="_SGR_01">
        <iidm:voltageLevel id="_BUS___14_VL" name="BUS   14_VL" nominalV="13.800000000000001" topologyKind="BUS_BREAKER">
            <iidm:busBreakerTopology>
                <iidm:bus id="_BUS___14_TN" v="14.265347303448761" angle="-21.627452617192628"/>
            </iidm:busBreakerTopology>
            <iidm:load id="_LOAD__14_EC" name="LOAD  14" loadType="UNDEFINED" p0="14.9" q0="5" bus="_BUS___14_TN" connectableBus="_BUS___14_TN" p="14.899986360606865" q="4.9999923716752752"/>
        </iidm:voltageLevel>
    </iidm:substation>
    <iidm:substation id="_BUS____1_SS" name="BUS    1_SS" country="AF" geographicalTags="_SGR_01">
        <iidm:voltageLevel id="_BUS____1_VL" name="BUS    1_VL" nominalV="69" topologyKind="BUS_BREAKER">
            <iidm:busBreakerTopology>
                <iidm:bus id="_BUS____1_TN" v="73.140000000000001" angle="0"/>
            </iidm:busBreakerTopology>
            <iidm:generator id="_GEN____1_SM" name="GEN    1" energySource="OTHER" minP="-9999" maxP="9999" voltageRegulatorOn="true" targetP="232.34630000000001" targetV="73.140000000000001" targetQ="-16.759" bus="_BUS____1_TN" connectableBus="_BUS____1_TN" p="-234.46633894377138" q="36.845198247066094">
                <iidm:minMaxReactiveLimits minQ="-999" maxQ="999"/>
            </iidm:generator>
        </iidm:voltageLevel>
    </iidm:substation>
    <iidm:substation id="_BUS____2_SS" name="BUS    2_SS" country="AF" geographicalTags="_SGR_01">
        <iidm:voltageLevel id="_BUS____2_VL" name="BUS    2_VL" nominalV="69" topologyKind="BUS_BREAKER">
            <iidm:busBreakerTopology>
                <iidm:bus id="_BUS____2_TN" v="72.110000000001151" angle="-7.5368002972374599"/>
            </iidm:busBreakerTopology>
            <iidm:generator id="_GEN____2_SM" name="GEN    2" energySource="OTHER" minP="-9999" maxP="9999" voltageRegulatorOn="true" targetP="40" targetV="72.105000000000004" targetQ="42.399999999999999" bus="_BUS____2_TN" connectableBus="_BUS____2_TN" p="-41.920137298460119" q="-74.699757746537429">
                <iidm:minMaxReactiveLimits minQ="-40" maxQ="50"/>
            </iidm:generator>
            <iidm:load id="_LOAD___2_EC" name="LOAD   2" loadType="UNDEFINED" p0="21.699999999999999" q0="12.699999999999999" bus="_BUS____2_TN" connectableBus="_BUS____2_TN" p="21.699999999999989" q="12.699999999999967"/>
        </iidm:voltageLevel>
    </iidm:substation>
    <iidm:substation id="_BUS____3_SS" name="BUS    3_SS" country="AF" geographicalTags="_SGR_01">
        <iidm:voltageLevel id="_BUS____3_VL" name="BUS    3_VL" nominalV="69" topologyKind="BUS_BREAKER">
            <iidm:busBreakerTopology>
                <iidm:bus id="_BUS____3_TN" v="69.69000000000004" angle="-16.57390866624154"/>
            </iidm:busBreakerTopology>
            <iidm:generator id="_GEN____3_SM" name="GEN    3" energySource="OTHER" minP="-9999" maxP="9999" voltageRegulatorOn="true" targetP="0" targetV="69.689999999999998" targetQ="23.399999999999999" bus="_BUS____3_TN" connectableBus="_BUS____3_TN" p="-2.8287736986242784" q="-28.802043478231159">
                <iidm:minMaxReactiveLimits minQ="0" maxQ="40"/>
            </iidm:generator>
            <iidm:load id="_LOAD___3_EC" name="LOAD   3" loadType="UNDEFINED" p0="94.200000000000003" q0="19" bus="_BUS____3_TN" connectableBus="_BUS____3_TN" p="94.199999999999932" q="18.999999999999918"/>
        </iidm:voltageLevel>
    </iidm:substation>
    <iidm:substation id="_BUS____4_SS" name="BUS    4_SS" country="AF" geographicalTags="_SGR_01">
        <iidm:voltageLevel id="_BUS____9_VL" name="BUS    9_VL" nominalV="13.800000000000001" topologyKind="BUS_BREAKER">
            <iidm:busBreakerTopology>
                <iidm:bus id="_BUS____9_TN" v="14.529550104351793" angle="-20.360527500562657"/>
            </iidm:busBreakerTopology>
            <iidm:load id="_LOAD___9_EC" name="LOAD   9" loadType="UNDEFINED" p0="29.5" q0="16.600000000000001" bus="_BUS____9_TN" connectableBus="_BUS____9_TN" p="29.620861682656379" q="16.713505233468894"/>
            <iidm:shunt id="_BANK___9_SC" name="BANK   9" sectionCount="1" voltageRegulatorOn="false" bus="_BUS____9_TN" connectableBus="_BUS____9_TN" q="-21.062016715626669">
                <iidm:shuntLinearModel bPerSection="0.099768999999999997" maximumSectionCount="1"/>
            </iidm:shunt>
        </iidm:voltageLevel>
        <iidm:voltageLevel id="_BUS____7_VL" name="BUS    7_VL" nominalV="13.800000000000001" topologyKind="BUS_BREAKER">
            <iidm:busBreakerTopology>
                <iidm:bus id="_BUS____7_TN" v="14.597407247084545" angle="-18.686008169102841"/>
            </iidm:busBreakerTopology>
        </iidm:voltageLevel>
        <iidm:voltageLevel id="_BUS____4_VL" name="BUS    4_VL" nominalV="69" topologyKind="BUS_BREAKER">
            <iidm:busBreakerTopology>
                <iidm:bus id="_BUS____4_TN" v="69.609128820874986" angle="-15.483505620065969"/>
            </iidm:busBreakerTopology>
            <iidm:load id="_LOAD___4_EC" name="LOAD   4" loadType="UNDEFINED" p0="47.799999999999997" q0="-3.8999999999999999" bus="_BUS____4_TN" connectableBus="_BUS____4_TN" p="47.79983569262923" q="-3.8999776569394782"/>
        </iidm:voltageLevel>
        <iidm:twoWindingsTransformer id="_BUS____4-BUS____9-1_PT" name="BUS    4-BUS    9-1" r="0" x="1.0591881000000001" g="0" b="0" ratedU1="69" ratedU2="13.800000000000001" bus1="_BUS____4_TN" connectableBus1="_BUS____4_TN" voltageLevelId1="_BUS____4_VL" bus2="_BUS____9_TN" connectableBus2="_BUS____9_TN" voltageLevelId2="_BUS____9_VL" p1="16.755561102835909" q1="-1.4885097778821132" p2="-16.755561102835912" q2="2.9404884351265452">
            <iidm:ratioTapChanger lowTapPosition="1" tapPosition="4" loadTapChangingCapabilities="false">
                <iidm:step r="0" x="0" g="0" b="0" rho="1.1111112000000001"/>
                <iidm:step r="0" x="0" g="0" b="0" rho="1.0834235999999999"/>
                <iidm:step r="0" x="0" g="0" b="0" rho="1.0570824999999999"/>
                <iidm:step r="0" x="0" g="0" b="0" rho="1.0319917000000001"/>
                <iidm:step r="0" x="0" g="0" b="0" rho="1.015744"/>
                <iidm:step r="0" x="0" g="0" b="0" rho="1"/>
                <iidm:step r="0" x="0" g="0" b="0" rho="0.98039220000000005"/>
                <iidm:step r="0" x="0" g="0" b="0" rho="0.96153849999999996"/>
                <iidm:step r="0" x="0" g="0" b="0" rho="0.94339629999999997"/>
                <iidm:step r="0" x="0" g="0" b="0" rho="0.92592589999999997"/>
                <iidm:step r="0" x="0" g="0" b="0" rho="0.90909090000000004"/>
            </iidm:ratioTapChanger>
            <iidm:currentLimits1 permanentLimit="836.74000000000001"/>
            <iidm:currentLimits2 permanentLimit="4183.6999999999998"/>
        </iidm:twoWindingsTransformer>
        <iidm:twoWindingsTransformer id="_BUS____4-BUS____7-1_PT" name="BUS    4-BUS    7-1" r="0" x="0.39824801999999998" g="0" b="0" ratedU1="69" ratedU2="13.800000000000001" bus1="_BUS____4_TN" connectableBus1="_BUS____4_TN" voltageLevelId1="_BUS____4_VL" bus2="_BUS____7_TN" connectableBus2="_BUS____7_TN" voltageLevelId2="_BUS____7_VL" p1="29.148760707338699" q1="-12.139262997001136" p2="-29.148760707338688" q2="14.09873646632459">
            <iidm:ratioTapChanger lowTapPosition="1" tapPosition="5" loadTapChangingCapabilities="false">
                <iidm:step r="0" x="0" g="0" b="0" rho="1.1111112000000001"/>
                <iidm:step r="0" x="0" g="0" b="0" rho="1.0875475999999999"/>
                <iidm:step r="0" x="0" g="0" b="0" rho="1.0649626999999999"/>
                <iidm:step r="0" x="0" g="0" b="0" rho="1.0432965999999999"/>
                <iidm:step r="0" x="0" g="0" b="0" rho="1.0224948"/>
                <iidm:step r="0" x="0" g="0" b="0" rho="1"/>
                <iidm:step r="0" x="0" g="0" b="0" rho="0.98039215999999996"/>
                <iidm:step r="0" x="0" g="0" b="0" rho="0.96153849999999996"/>
                <iidm:step r="0" x="0" g="0" b="0" rho="0.94339629999999997"/>
                <iidm:step r="0" x="0" g="0" b="0" rho="0.92592589999999997"/>
                <iidm:step r="0" x="0" g="0" b="0" rho="0.90909090000000004"/>
            </iidm:ratioTapChanger>
            <iidm:currentLimits1 permanentLimit="836.74000000000001"/>
            <iidm:currentLimits2 permanentLimit="4183.6999999999998"/>
        </iidm:twoWindingsTransformer>
    </iidm:substation>
    <iidm:substation id="_BUS____5_SS" name="BUS    5_SS" country="AF" geographicalTags="_SGR_01">
        <iidm:voltageLevel id="_BUS____6_VL" name="BUS    6_VL" nominalV="13.800000000000001" topologyKind="BUS_BREAKER">
            <iidm:busBreakerTopology>
                <iidm:bus id="_BUS____6_TN" v="14.770000000090301" angle="-20.09518883756207"/>
            </iidm:busBreakerTopology>
            <iidm:generator id="_GEN____6_SM" name="GEN    6" energySource="OTHER" minP="-9999" maxP="9999" voltageRegulatorOn="true" targetP="0" targetV="14.766" targetQ="12.199999999999999" bus="_BUS____6_TN" connectableBus="_BUS____6_TN" p="-0.1417244196482467" q="-21.142137640069841">
                <iidm:minMaxReactiveLimits minQ="-6" maxQ="24"/>
            </iidm:generator>
            <iidm:load id="_LOAD___6_EC" name="LOAD   6" loadType="UNDEFINED" p0="11.199999999999999" q0="7.5" bus="_BUS____6_TN" connectableBus="_BUS____6_TN" p="11.52620096449531" q="7.8675867090385561"/>
        </iidm:voltageLevel>
        <iidm:voltageLevel id="_BUS____5_VL" name="BUS    5_VL" nominalV="69" topologyKind="BUS_BREAKER">
            <iidm:busBreakerTopology>
                <iidm:bus id="_BUS____5_TN" v="69.455273372821722" angle="-14.806376340896653"/>
            </iidm:busBreakerTopology>
            <iidm:load id="_LOAD___5_EC" name="LOAD   5" loadType="UNDEFINED" p0="7.5999999999999996" q0="1.6000000000000001" bus="_BUS____5_TN" connectableBus="_BUS____5_TN" p="7.5999624476971785" q="1.5999868237488108"/>
        </iidm:voltageLevel>
        <iidm:twoWindingsTransformer id="_BUS____5-BUS____6-1_PT" name="BUS    5-BUS    6-1" r="0" x="0.47994804000000002" g="0" b="0" ratedU1="69" ratedU2="13.800000000000001" bus1="_BUS____5_TN" connectableBus1="_BUS____5_TN" voltageLevelId1="_BUS____5_VL" bus2="_BUS____6_TN" connectableBus2="_BUS____6_TN" voltageLevelId2="_BUS____6_VL" p1="42.27895182061031" q1="6.1315811402889402" p2="-42.278951820610317" q2="-2.188427583056693">
            <iidm:ratioTapChanger lowTapPosition="1" tapPosition="3" loadTapChangingCapabilities="false">
                <iidm:step r="0" x="0" g="0" b="0" rho="1.1111112000000001"/>
                <iidm:step r="0" x="0" g="0" b="0" rho="1.0917030999999999"/>
                <iidm:step r="0" x="0" g="0" b="0" rho="1.0729614000000001"/>
                <iidm:step r="0" x="0" g="0" b="0" rho="1.0474859999999999"/>
                <iidm:step r="0" x="0" g="0" b="0" rho="1.0231923999999999"/>
                <iidm:step r="0" x="0" g="0" b="0" rho="1"/>
                <iidm:step r="0" x="0" g="0" b="0" rho="0.98039220000000005"/>
                <iidm:step r="0" x="0" g="0" b="0" rho="0.96153849999999996"/>
                <iidm:step r="0" x="0" g="0" b="0" rho="0.94339629999999997"/>
                <iidm:step r="0" x="0" g="0" b="0" rho="0.92592589999999997"/>
                <iidm:step r="0" x="0" g="0" b="0" rho="0.90909090000000004"/>
            </iidm:ratioTapChanger>
            <iidm:currentLimits1 permanentLimit="836.74000000000001"/>
            <iidm:currentLimits2 permanentLimit="4183.6999999999998"/>
        </iidm:twoWindingsTransformer>
    </iidm:substation>
    <iidm:substation id="_BUS____8_SS" name="BUS    8_SS" country="AF" geographicalTags="_SGR_01">
        <iidm:voltageLevel id="_BUS____8_VL" name="BUS    8_VL" nominalV="13.800000000000001" topologyKind="BUS_BREAKER">
            <iidm:busBreakerTopology>
                <iidm:bus id="_BUS____8_TN" v="15.04000000002798" angle="-18.647985163375374"/>
            </iidm:busBreakerTopology>
            <iidm:generator id="_GEN____8_SM" name="GEN    8" energySource="OTHER" minP="-9999" maxP="9999" voltageRegulatorOn="true" targetP="0" targetV="15.042" targetQ="17.399999999999999" bus="_BUS____8_TN" connectableBus="_BUS____8_TN" p="-0.43431676988978823" q="-19.843329601304198">
                <iidm:minMaxReactiveLimits minQ="-6" maxQ="24"/>
            </iidm:generator>
        </iidm:voltageLevel>
    </iidm:substation>
    <iidm:line id="_BUS___10-BUS___11-1_AC" name="BUS   10-BUS   11-1" r="0.15625600000000001" x="0.36577799999999999" g1="0" b1="0" g2="0" b2="0" bus1="_BUS___10_TN" connectableBus1="_BUS___10_TN" voltageLevelId1="_BUS___10_VL" bus2="_BUS___11_TN" connectableBus2="_BUS___11_TN" voltageLevelId2="_BUS___11_VL" p1="-2.4942818465518894" q1="-2.9167443806966675" p2="2.5052734412140776" q2="2.9424744871395943">
        <iidm:currentLimits1 permanentLimit="4183.6999999999998"/>
    </iidm:line>
    <iidm:line id="_BUS___12-BUS___13-1_AC" name="BUS   12-BUS   13-1" r="0.42071999999999998" x="0.38065100000000002" g1="0" b1="0" g2="0" b2="0" bus1="_BUS___12_TN" connectableBus1="_BUS___12_TN" voltageLevelId1="_BUS___12_VL" bus2="_BUS___13_TN" connectableBus2="_BUS___13_TN" voltageLevelId2="_BUS___13_VL" p1="1.466463598573168" q1="0.94422468673425608" p2="-1.4604266028197848" q2="-0.93876264910704321">
        <iidm:currentLimits1 permanentLimit="4183.6999999999998"/>
    </iidm:line>
    <iidm:line id="_BUS___13-BUS___14-1_AC" name="BUS   13-BUS   14-1" r="0.325519" x="0.66276900000000005" g1="0" b1="0" g2="0" b2="0" bus1="_BUS___13_TN" connectableBus1="_BUS___13_TN" voltageLevelId1="_BUS___13_VL" bus2="_BUS___14_TN" connectableBus2="_BUS___14_TN" voltageLevelId2="_BUS___14_VL" p1="4.8779619445152784" q1="2.6091641068433162" p2="-4.8305381055648748" q2="-2.5126073764610024">
        <iidm:currentLimits1 permanentLimit="4183.6999999999998"/>
    </iidm:line>
    <iidm:line id="_BUS____1-BUS____2-1_AC" name="BUS    1-BUS    2-1" r="0.922682" x="2.8170799999999998" g1="0" b1="0.00055450499999999995" g2="0" b2="0.00055450499999999995" bus1="_BUS____1_TN" connectableBus1="_BUS____1_TN" voltageLevelId1="_BUS____1_VL" bus2="_BUS____2_TN" connectableBus2="_BUS____2_TN" voltageLevelId2="_BUS____2_VL" p1="234.46633894377143" q1="-36.845198247066001" p2="-224.78629872745094" q2="60.550098249799845">
        <iidm:currentLimits1 permanentLimit="836.74000000000001"/>
    </iidm:line>
    <iidm:line id="_BUS____1-BUS____5-1_AC" name="BUS    1-BUS    5-1" r="2.5723699999999998" x="10.6189" g1="0" b1="0.00051670000000000004" g2="0" b2="0.00051670000000000004" connectableBus1="_BUS____1_TN" voltageLevelId1="_BUS____1_VL" connectableBus2="_BUS____5_TN" voltageLevelId2="_BUS____5_VL" p1="0" q1="0" p2="0" q2="-0">
        <iidm:currentLimits1 permanentLimit="836.74000000000001"/>
    </iidm:line>
    <iidm:line id="_BUS____2-BUS____3-1_AC" name="BUS    2-BUS    3-1" r="2.23719" x="9.4253499999999999" g1="0" b1="0.00045998749999999998" g2="0" b2="0.00045998749999999998" bus1="_BUS____2_TN" connectableBus1="_BUS____2_TN" voltageLevelId1="_BUS____2_VL" bus2="_BUS____3_TN" connectableBus2="_BUS____3_TN" voltageLevelId2="_BUS____3_VL" p1="84.928465287461293" q1="2.5825506444337956" p2="-81.814557136245284" q2="5.9105533172771754">
        <iidm:currentLimits1 permanentLimit="836.74000000000001"/>
    </iidm:line>
    <iidm:line id="_BUS____2-BUS____4-1_AC" name="BUS    2-BUS    4-1" r="2.7666200000000001" x="8.3946000000000005" g1="0" b1="0.00035706799999999999" g2="0" b2="0.00035706799999999999" bus1="_BUS____2_TN" connectableBus1="_BUS____2_TN" voltageLevelId1="_BUS____2_VL" bus2="_BUS____4_TN" connectableBus2="_BUS____4_TN" voltageLevelId2="_BUS____4_VL" p1="82.66115515067942" q1="-1.8748390850560916" p2="-79.025677475758343" q2="9.3189161495895139">
        <iidm:currentLimits1 permanentLimit="836.74000000000001"/>
    </iidm:line>
    <iidm:line id="_BUS____2-BUS____5-1_AC" name="BUS    2-BUS    5-1" r="2.7113900000000002" x="8.2784300000000002" g1="0" b1="0.000363369" g2="0" b2="0.000363369" bus1="_BUS____2_TN" connectableBus1="_BUS____2_TN" voltageLevelId1="_BUS____2_VL" bus2="_BUS____5_TN" connectableBus2="_BUS____5_TN" voltageLevelId2="_BUS____5_VL" p1="77.416815587738057" q1="0.74194793719690311" p2="-74.28804967806532" q2="5.168446521917355">
        <iidm:currentLimits1 permanentLimit="836.74000000000001"/>
    </iidm:line>
    <iidm:line id="_BUS____3-BUS____4-1_AC" name="BUS    3-BUS    4-1" r="3.19035" x="8.1427399999999999" g1="0" b1="0.00013442550000000001" g2="0" b2="0.00013442550000000001" bus1="_BUS____3_TN" connectableBus1="_BUS____3_TN" voltageLevelId1="_BUS____3_VL" bus2="_BUS____4_TN" connectableBus2="_BUS____4_TN" voltageLevelId2="_BUS____4_VL" p1="-9.5566691650816669" q1="3.8914901609581394" p2="9.6302292203813291" q2="-5.0079558699179865">
        <iidm:currentLimits1 permanentLimit="836.74000000000001"/>
    </iidm:line>
    <iidm:line id="_BUS____4-BUS____5-1_AC" name="BUS    4-BUS    5-1" r="0.63559299999999996" x="2.0048599999999999" g1="0" b1="0" g2="0" b2="0" bus1="_BUS____4_TN" connectableBus1="_BUS____4_TN" voltageLevelId1="_BUS____4_VL" bus2="_BUS____5_TN" connectableBus2="_BUS____5_TN" voltageLevelId2="_BUS____5_VL" p1="-24.308709247331432" q1="13.216790152277419" p2="24.409135409810098" q2="-12.90001448592022">
        <iidm:currentLimits1 permanentLimit="836.74000000000001"/>
    </iidm:line>
    <iidm:line id="_BUS____6-BUS___11-1_AC" name="BUS    6-BUS   11-1" r="0.18088000000000001" x="0.37878499999999998" g1="0" b1="0" g2="0" b2="0" bus1="_BUS____6_TN" connectableBus1="_BUS____6_TN" voltageLevelId1="_BUS____6_VL" bus2="_BUS___11_TN" connectableBus2="_BUS___11_TN" voltageLevelId2="_BUS___11_VL" p1="6.0849893445270933" q1="4.8732056696027666" p2="-6.0345979750378298" q2="-4.7676799349057806">
        <iidm:currentLimits1 permanentLimit="4183.6999999999998"/>
    </iidm:line>
    <iidm:line id="_BUS____6-BUS___12-1_AC" name="BUS    6-BUS   12-1" r="0.23407" x="0.48716500000000001" g1="0" b1="0" g2="0" b2="0" bus1="_BUS____6_TN" connectableBus1="_BUS____6_TN" voltageLevelId1="_BUS____6_VL" bus2="_BUS___12_TN" connectableBus2="_BUS___12_TN" voltageLevelId2="_BUS___12_VL" p1="7.6821397346146263" q1="2.7119223504679328" p2="-7.6109273985885819" q2="-2.5637096035113482">
        <iidm:currentLimits1 permanentLimit="4183.6999999999998"/>
    </iidm:line>
    <iidm:line id="_BUS____6-BUS___13-1_AC" name="BUS    6-BUS   13-1" r="0.125976" x="0.248086" g1="0" b1="0" g2="0" b2="0" bus1="_BUS____6_TN" connectableBus1="_BUS____6_TN" voltageLevelId1="_BUS____6_VL" bus2="_BUS___13_TN" connectableBus2="_BUS___13_TN" voltageLevelId2="_BUS___13_VL" p1="17.127346197312541" q1="7.877850500272249" p2="-16.922110826649423" q2="-7.4736781010348547">
        <iidm:currentLimits1 permanentLimit="4183.6999999999998"/>
    </iidm:line>
    <iidm:line id="_BUS____7-BUS____8-1_AC" name="BUS    7-BUS    8-1" r="0" x="0.33545999999999998" g1="0" b1="0" g2="0" b2="0" bus1="_BUS____7_TN" connectableBus1="_BUS____7_TN" voltageLevelId1="_BUS____7_VL" bus2="_BUS____8_TN" connectableBus2="_BUS____8_TN" voltageLevelId2="_BUS____8_VL" p1="-0.43431676986429996" q1="-19.259101876468808" p2="0.43431676986429923" q2="19.843329601517361">
        <iidm:currentLimits1 permanentLimit="4183.6999999999998"/>
    </iidm:line>
    <iidm:line id="_BUS____7-BUS____9-1_AC" name="BUS    7-BUS    9-1" r="0" x="0.20950299999999999" g1="0" b1="0" g2="0" b2="0" bus1="_BUS____7_TN" connectableBus1="_BUS____7_TN" voltageLevelId1="_BUS____7_VL" bus2="_BUS____9_TN" connectableBus2="_BUS____9_TN" voltageLevelId2="_BUS____9_VL" p1="29.583077477202796" q1="5.1603654101440872" p2="-29.583077477202803" q2="-4.2737338741967639">
        <iidm:currentLimits1 permanentLimit="4183.6999999999998"/>
    </iidm:line>
    <iidm:line id="_BUS____9-BUS___10-1_AC" name="BUS    9-BUS   10-1" r="0.060579000000000001" x="0.16092200000000001" g1="0" b1="0" g2="0" b2="0" bus1="_BUS____9_TN" connectableBus1="_BUS____9_TN" voltageLevelId1="_BUS____9_VL" bus2="_BUS___10_TN" connectableBus2="_BUS___10_TN" voltageLevelId2="_BUS___10_VL" p1="6.5203587679362265" q1="2.9221623648858093" p2="-6.5057084015021944" q2="-2.8832451449366978">
        <iidm:currentLimits1 permanentLimit="4183.6999999999998"/>
    </iidm:line>
    <iidm:line id="_BUS____9-BUS___14-1_AC" name="BUS    9-BUS   14-1" r="0.24206800000000001" x="0.51491200000000004" g1="0" b1="0" g2="0" b2="0" bus1="_BUS____9_TN" connectableBus1="_BUS____9_TN" voltageLevelId1="_BUS____9_VL" bus2="_BUS___14_TN" connectableBus2="_BUS___14_TN" voltageLevelId2="_BUS___14_VL" p1="10.197418129595016" q1="2.7595945564210291" p2="-10.0694482549924" q2="-2.4873849951763285">
        <iidm:currentLimits1 permanentLimit="4183.6999999999998"/>
    </iidm:line>
</iidm:network>
